&metadata
 domain                    = 'UK',
 model                     = 'WRF',
 model_run                 = 'TestCase1',
/

&time_control
 run_days                  = 0,
 run_hours                 = 6,
 run_minutes               = 0,
 run_seconds               = 0,
 start_year                = 2010,     2010,     2010,
 start_month               = 1,        1,        1,
 start_day                 = 1,        1,        1,
 start_hour                = 0,        0,        0,
 start_minute              = 0,        0,        0,        0,        0,
 start_second              = 0,        0,        0,        0,        0,
 end_year                  = 2010,     2010,     2010,
 end_month                 = 1,        1,        1,
 end_day                   = 1,        1,        1,
 end_hour                  = 6,        6,        6,
 end_minute                = 0,        0,        0,        0,        0,
 end_second                = 0,        0,        0,        0,        0,
 interval_seconds          = 21600,
 input_from_file           = .true.,   .true.,   .true.,
 history_interval          = 60,       60,       60,
 frames_per_outfile        = 1000,     1000,     1000,     1000,     1000,
 restart                   = .false.,
 restart_interval          = 5000,
 io_form_history           = 2,
 io_form_restart           = 2,
 io_form_input             = 2,
 io_form_boundary          = 2,
 debug_level               = 0,
/

&domains
 time_step                 = 100,
 time_step_fract_num       = 0,
 time_step_fract_den       = 1,
 max_dom                   = 3,
 e_we                      = 150,      109,      100,
 e_sn                      = 100,      124,      100,
 e_vert                    = 53,       53,       53,
 p_top_requested           = 5000,
 num_metgrid_levels        = 38,
 eta_levels                = 1,        0.9985,   0.997,    0.995,    0.993,    0.991,    0.989,    0.986,    0.983,    0.98,     0.975,    0.97,     0.96,     0.95,     0.94,     0.93,     0.92,     0.91,     0.9,      0.89,     0.87,     0.85,     0.83,     0.81,     0.73825,  0.6707432,0.61,     0.55,     0.512,    0.472,    0.436,    0.404,    0.376,    0.351,    0.329,    0.309,    0.292,    0.276,    0.248,    0.224,    0.204,    0.18,     0.16,     0.147,    0.133,    0.12,     0.107,    0.096,    0.056,    0.03,     0.01,     0.00025,  0.0,
 num_metgrid_soil_levels   = 4,
 dx                        = 27000,    9000,     3000,     3000,     3000,
 dy                        = 27000,    9000,     3000,     3000,     3000,
 grid_id                   = 1,        2,        3,        4,        5,
 parent_id                 = 0,        1,        2,        2,        2,
 i_parent_start            = 1,        45,       67,       100,      145,
 j_parent_start            = 1,        25,       67,       38,       88,
 parent_grid_ratio         = 1,        3,        3,        3,        3,
 parent_time_step_ratio    = 1,        3,        3,        3,        3,
 feedback                  = 1,
 smooth_option             = 0,
/

&physics
 mp_physics                = 3,        3,        3,        3,        3,
 ra_lw_physics             = 1,        1,        1,        1,        1,
 ra_sw_physics             = 1,        1,        1,        1,        1,
 radt                      = 30,       30,       30,       30,       30,
 sf_sfclay_physics         = 2,        2,        2,        2,        2,
 sf_surface_physics        = 2,        2,        2,        2,        2,
 bl_pbl_physics            = 2,        2,        2,        2,        2,
 bldt                      = 0,        0,        0,        0,        0,
 cu_physics                = 1,        1,        0,        0,        0,
 cudt                      = 5,        5,        5,        5,        5,
 isfflx                    = 1,
 ifsnow                    = 1,
 icloud                    = 1,
 surface_input_source      = 1,
 num_soil_layers           = 5,
 num_land_cat              = 24,
 sf_urban_physics          = 0,        0,        0,        0,        0,
/

&dynamics
 w_damping                 = 1,
 diff_opt                  = 1,
 km_opt                    = 4,
 diff_6th_opt              = 0,        0,        0,        0,        0,
 diff_6th_factor           = 0.12,     0.12,     0.12,     0.12,     0.12,
 base_temp                 = 290.0,
 damp_opt                  = 0,
 zdamp                     = 5000.0,   5000.0,   5000.0,   5000.0,   5000.0,
 dampcoef                  = 0.2,      0.2,      0.2,      0.2,      0.2,
 epssm                     = 0.6,      0.6,      0.6,      0.6,      0.6,
 khdif                     = 0,        0,        0,        0,        0,
 kvdif                     = 0,        0,        0,        0,        0,
 non_hydrostatic           = .true.,   .true.,   .true.,   .true.,   .true.,
 moist_adv_opt             = 1,        1,        1,        1,        1,
 scalar_adv_opt            = 1,        1,        1,        1,        1,
/

&bdy_control
 spec_bdy_width            = 5,
 spec_zone                 = 1,
 relax_zone                = 4,
 specified                 = .true.,   .false.,  .false.,  .false.,  .false.,
 nested                    = .false.,  .true.,   .true.,   .true.,   .true.,
/

&namelist_quilt
 nio_tasks_per_group       = 0,
 nio_groups                = 1,
/

&dfi_control
 dfi_bckstop_year          = 2009,
 dfi_bckstop_month         = 12,
 dfi_bckstop_day           = 31,
 dfi_bckstop_hour          = 23,
 dfi_bckstop_minute        = 0,
 dfi_bckstop_second        = 0,
 dfi_fwdstop_year          = 2010,
 dfi_fwdstop_month         = 1,
 dfi_fwdstop_day           = 2,
 dfi_fwdstop_hour          = 12,
 dfi_fwdstop_minute        = 0,
 dfi_fwdstop_second        = 0,
/

